       5
SCF Done            -130.32509576
Ba           10.050000000         6.500000000         7.000000000
Sn            0.000000000         0.000000000         0.000000000
O             0.000000000         3.000000000         3.500000000
O             4.050000000         1.000000000         1.500000000
O             6.000000000         2.500000000         2.000000000
