       5
SCF Done            -134.54880501
Ba            2.500000000         2.500000000         2.500000000
Sn            0.000000000         0.000000000         0.000000000
O             0.000000000         2.500000000         0.000000000
O             0.000000000         0.000000000         2.500000000
O             2.500000000         0.000000000         0.000000000
